500

Ar	-3.9220    -3.2742    2.8863    
Ar	-3.6783    2.5514    -3.6327    
Ar	-3.0811    2.6540    3.2949    
Ar	-2.2262    4.2110    -3.6231    
Ar	-0.1272    3.1015    -2.1123    
Ar	-0.4601    -4.2477    3.6457    
Ar	3.4239    -3.8578    -3.8964    
Ar	3.9141    3.6585    2.6630    
Ar	1.7181    -3.0482    4.2071    
Ar	-2.9561    -3.7260    -3.9308    
Ar	-3.3834    -1.9013    2.6131    
Ar	-1.9942    -3.1297    2.3885    
Ar	-1.7427    3.0197    -3.5935    
Ar	0.8934    -3.5718    3.8289    
Ar	1.0316    -1.9805    -3.3436    
Ar	3.6940    -2.1420    -4.0652    
Ar	2.6443    -3.6476    3.7486    
Ar	-2.3837    -3.0568    3.4816    
Ar	-1.3742    -0.8895    -3.8270    
Ar	0.5166    -1.3797    3.5216    
Ar	-0.1606    -3.5528    -4.1051    
Ar	1.3310    -2.0646    2.1352    
Ar	1.7111    -1.6732    3.3501    
Ar	4.2613    -1.6756    3.4465    
Ar	-3.3852    -0.7680    3.9227    
Ar	-2.2017    -1.5640    3.6695    
Ar	-3.8279    -1.0122    -3.6362    
Ar	-0.5483    -2.1911    4.2559    
Ar	-0.1502    -1.0422    2.6233    
Ar	2.6837    -1.1268    3.7801    
Ar	3.4554    -1.1097    3.1718    
Ar	4.1448    0.5758    -4.1969    
Ar	-3.9361    0.2280    3.4814    
Ar	-2.4971    0.4850    -3.7161    
Ar	-1.9876    1.3583    -4.2211    
Ar	-1.2928    0.1797    -3.8136    
Ar	0.4329    -2.5518    -3.8456    
Ar	-0.2163    -0.2102    -3.6996    
Ar	1.6565    -0.6825    -3.0895    
Ar	2.8889    -0.0359    3.5727    
Ar	-3.7288    1.1611    3.7172    
Ar	-3.6429    0.0147    -4.0550    
Ar	-2.7349    3.3948    -3.2664    
Ar	-0.5590    0.6511    4.2158    
Ar	-0.7659    1.6584    4.1370    
Ar	0.5000    1.5136    3.4007    
Ar	2.5702    1.9325    3.1964    
Ar	3.1641    1.0624    2.8589    
Ar	3.7305    3.2978    -2.7806    
Ar	-2.7197    2.4151    -4.0326    
Ar	4.2691    1.6044    -3.9685    
Ar	-2.4657    -4.2545    3.7835    
Ar	1.0912    2.5322    3.2855    
Ar	3.1567    2.6720    4.2138    
Ar	1.1709    1.0163    -3.5289    
Ar	3.3918    1.7449    3.8290    
Ar	-3.4966    3.3471    4.2219    
Ar	-3.1673    1.2532    -3.9763    
Ar	-1.2592    -4.0304    2.3082    
Ar	-1.4389    2.6179    4.0592    
Ar	-1.3672    3.7351    3.9031    
Ar	1.6741    1.2405    3.2304    
Ar	2.3669    0.6011    -3.6524    
Ar	2.8735    3.6420    -3.4021    
Ar	-3.8682    -2.8536    -3.2126    
Ar	-2.9292    -2.4798    -2.1266    
Ar	-1.1996    -3.3869    -1.3503    
Ar	-2.0672    -3.2391    -3.8524    
Ar	0.7718    2.9304    -1.5489    
Ar	2.8470    -2.8597    -3.9086    
Ar	2.7496    -3.6879    -2.9756    
Ar	3.5107    2.1303    -3.5886    
Ar	-3.9715    -2.1238    -2.2483    
Ar	-2.0481    -2.2764    -3.6320    
Ar	-1.8344    -3.9798    -2.1412    
Ar	-1.1497    -1.8353    -3.5644    
Ar	0.6897    -3.8216    -3.0595    
Ar	-0.3412    -2.5675    -2.6948    
Ar	1.2842    3.3344    3.9668    
Ar	-4.0241    -3.7907    -3.5807    
Ar	-4.1985    -0.2511    -2.6727    
Ar	-2.0413    -0.9409    -2.9238    
Ar	-1.0303    -1.1118    -2.6759    
Ar	-1.6758    -2.2940    -2.7340    
Ar	-0.1330    -1.7525    -2.3045    
Ar	-0.2818    4.0910    -3.3218    
Ar	1.8868    -1.6813    -2.6949    
Ar	4.1790    -2.4610    -1.2212    
Ar	3.6022    -1.8017    -2.7079    
Ar	-3.0924    -1.8360    3.9494    
Ar	-1.5525    -2.3014    3.7357    
Ar	0.2055    -1.5074    -4.1075    
Ar	0.4615    -1.0528    -3.1537    
Ar	1.6493    -1.1555    -4.1674    
Ar	2.9789    -1.4723    -3.6152    
Ar	4.1800    -2.9891    4.2515    
Ar	-4.1437    -1.2155    -2.6124    
Ar	4.0876    -0.4277    3.9355    
Ar	-1.8373    -0.9578    -1.9475    
Ar	-1.1187    0.2711    -2.6454    
Ar	0.8782    -0.1160    -3.2727    
Ar	1.1801    1.8842    -4.0103    
Ar	2.6958    -0.5537    -3.8225    
Ar	2.3931    -0.3378    -2.6857    
Ar	-3.8654    0.7520    -2.1712    
Ar	-2.3674    0.0658    -2.4952    
Ar	-0.8549    1.1682    -3.5147    
Ar	-1.7948    0.8398    -3.0818    
Ar	0.3576    1.2156    -3.9290    
Ar	0.8319    1.0127    -2.3386    
Ar	1.5467    0.6862    3.9881    
Ar	-3.2275    -0.2532    -3.0199    
Ar	-2.7539    2.0869    -2.8911    
Ar	-3.7299    1.7152    -2.9932    
Ar	-1.6872    1.9282    -2.4334    
Ar	-0.7091    3.0674    -3.1180    
Ar	-0.0617    2.2015    -3.5438    
Ar	1.9631    2.9258    -3.8557    
Ar	3.1533    1.0984    -4.0352    
Ar	4.0024    2.1178    -0.6521    
Ar	2.6018    1.9581    -2.0905    
Ar	-3.0183    -4.1666    -2.8218    
Ar	-2.3329    3.2181    3.9303    
Ar	0.3695    2.4930    4.0432    
Ar	-1.6531    3.0482    -1.6934    
Ar	1.1980    3.5797    -3.5612    
Ar	2.0023    3.0686    3.2887    
Ar	4.2407    3.8641    4.2248    
Ar	-4.0740    -3.9898    -2.0620    
Ar	-3.5735    3.5886    -1.8550    
Ar	-2.3823    3.7166    -1.5875    
Ar	-1.8040    3.7044    -2.8333    
Ar	0.4294    4.1581    -2.0754    
Ar	1.1394    3.7612    -1.1628    
Ar	3.0109    3.9007    -2.4116    
Ar	3.7136    -3.1266    -3.3542    
Ar	-3.0289    -3.3797    -2.2996    
Ar	-4.0164    4.2483    -1.0241    
Ar	-2.9302    -3.0829    -3.2313    
Ar	-1.1405    -3.2168    -2.3501    
Ar	-0.3523    -2.0614    0.7761    
Ar	1.7292    -4.1577    -2.9427    
Ar	1.5792    -3.0116    -2.8945    
Ar	3.3090    -3.8576    -1.7153    
Ar	-2.9522    -1.4176    -2.1867    
Ar	-2.0942    -3.1287    -2.7016    
Ar	-1.0495    -1.9525    -1.8467    
Ar	0.4085    -3.1297    -0.6283    
Ar	0.1181    -1.1323    -1.5778    
Ar	1.1934    -4.0313    -3.9350    
Ar	2.7469    -2.2981    -3.0184    
Ar	4.0877    -3.0635    -2.4303    
Ar	3.9254    -1.5191    -1.6764    
Ar	-2.7436    -1.7807    -3.1619    
Ar	-1.9636    -1.6230    -1.3409    
Ar	-1.0097    -0.9406    -1.4345    
Ar	0.0647    -0.5537    -2.4546    
Ar	0.6425    -2.7190    -2.5254    
Ar	1.7243    -0.7447    -1.8953    
Ar	2.9670    0.0292    -1.9294    
Ar	3.3204    -0.7216    -1.2840    
Ar	-3.4627    0.1463    -0.9322    
Ar	-0.8243    0.1436    -1.2718    
Ar	-1.4387    2.0635    -3.4047    
Ar	-1.0935    1.1163    -2.0257    
Ar	1.0133    -0.9773    -1.1821    
Ar	3.3288    -0.8097    -2.6948    
Ar	3.1093    0.1351    -3.0988    
Ar	3.6948    0.9230    -2.1480    
Ar	4.2051    1.5604    -1.5976    
Ar	-2.9675    0.5012    -1.6979    
Ar	-3.0441    1.0173    -2.8415    
Ar	0.3830    3.0359    -3.1366    
Ar	1.7661    1.5936    -2.7288    
Ar	1.5501    0.4100    -2.5508    
Ar	3.6802    0.9462    -3.1622    
Ar	-3.7485    3.6985    -2.8007    
Ar	-3.7439    0.5741    -3.2338    
Ar	-2.5347    2.6960    -2.2080    
Ar	0.0969    0.4756    -2.8000    
Ar	1.6968    1.8602    0.2430    
Ar	0.7361    2.0167    -2.8924    
Ar	4.0143    1.9321    -2.5369    
Ar	2.8282    1.4947    -3.1349    
Ar	3.7369    -4.2322    -2.8436    
Ar	-3.2490    3.5949    -0.8703    
Ar	-2.0012    3.1590    -0.7244    
Ar	-1.2322    2.1431    -1.4858    
Ar	-0.9576    3.6641    -2.0675    
Ar	-0.1077    2.0454    -1.3508    
Ar	2.1491    2.4682    -3.0332    
Ar	1.0646    3.4320    -2.3830    
Ar	2.7479    2.9765    -1.8787    
Ar	3.5925    4.1515    -0.3725    
Ar	-2.3759    -2.9182    -0.7757    
Ar	-0.5954    4.0713    -1.2322    
Ar	-0.5734    -4.0745    -2.1646    
Ar	0.8858    3.9522    1.0807    
Ar	2.0090    3.4327    -2.7134    
Ar	1.8627    3.1269    -1.4601    
Ar	-4.0229    3.5989    0.1151    
Ar	-3.0805    -4.0292    -1.3685    
Ar	-0.5054    -2.7597    0.0031    
Ar	-1.5054    -4.2305    -1.0083    
Ar	-0.6200    -2.5080    -1.2008    
Ar	0.9484    -3.5653    -1.5314    
Ar	1.9531    -4.0340    -1.8082    
Ar	1.9439    -1.9948    -1.3172    
Ar	-2.5233    -0.9743    0.8510    
Ar	-3.1753    -2.1281    -1.2717    
Ar	-1.3671    -3.0733    -0.4051    
Ar	-2.0476    -2.5874    -1.7868    
Ar	-1.4560    -1.0009    -0.5763    
Ar	1.1187    -2.5398    -1.6982    
Ar	2.7840    -1.1108    -1.9948    
Ar	-3.9423    -1.6064    -0.6456    
Ar	4.1341    -0.7417    -0.8813    
Ar	-3.4303    -0.5127    -2.0666    
Ar	-1.5456    -2.0184    -0.4087    
Ar	0.1599    -0.0527    -1.1070    
Ar	-0.5216    -1.6136    -0.6732    
Ar	0.3501    -2.1054    -1.0358    
Ar	3.1717    -1.8953    -0.7517    
Ar	2.4300    0.2549    0.1414    
Ar	-3.1251    -0.8374    -0.9582    
Ar	3.6865    0.1756    -0.3120    
Ar	-2.2585    1.8797    -1.5292    
Ar	-3.1334    2.0037    -0.6645    
Ar	1.0249    0.4522    -1.2634    
Ar	0.8795    -1.4558    -2.2543    
Ar	1.2424    1.6755    -1.4577    
Ar	4.1758    -0.6795    0.2609    
Ar	4.2337    0.3225    -1.3761    
Ar	3.2575    2.0328    -1.4188    
Ar	-3.3754    1.7195    -1.7279    
Ar	-0.3044    1.4022    -2.8082    
Ar	-1.7137    0.8689    -1.2312    
Ar	0.8828    -0.3465    -2.0881    
Ar	2.5943    1.6036    -0.4891    
Ar	3.6679    1.0517    -0.5723    
Ar	-3.1380    2.7177    -1.4071    
Ar	-3.4929    2.7120    -2.5671    
Ar	-0.4344    1.9327    -0.3555    
Ar	-0.4125    2.2547    -2.4227    
Ar	2.0826    1.0113    -1.7951    
Ar	1.5546    2.5800    -2.2785    
Ar	2.2489    3.0688    -0.1788    
Ar	3.4713    1.1720    0.4313    
Ar	2.6121    3.7013    -0.9158    
Ar	-3.1627    -3.9510    -0.0248    
Ar	-1.4175    2.1904    -0.5599    
Ar	-1.9208    2.8129    0.2359    
Ar	-0.5102    -3.5241    -0.6921    
Ar	1.3552    2.6627    -0.6989    
Ar	2.2139    2.2553    -1.1398    
Ar	3.3214    3.4976    1.6465    
Ar	4.0325    -3.4350    -1.1699    
Ar	3.6134    3.4642    0.5261    
Ar	-2.1365    4.0096    0.6242    
Ar	-1.4914    3.7683    -0.1606    
Ar	-1.1538    -3.8820    0.3259    
Ar	0.5966    -3.4251    1.4385    
Ar	1.5284    -3.6578    1.0408    
Ar	2.1782    -2.7817    -2.1487    
Ar	-3.6578    -2.9850    -1.6257    
Ar	3.9706    -2.2639    -0.2883    
Ar	-2.5678    -1.5704    -0.4214    
Ar	-2.2785    -2.4378    0.2138    
Ar	0.4088    -2.9956    0.3829    
Ar	0.5400    -4.0750    -0.7366    
Ar	2.2523    -3.4574    -0.9755    
Ar	2.5502    -2.9656    0.2021    
Ar	3.7390    -3.0296    0.6534    
Ar	-3.1935    -2.3045    -0.2382    
Ar	-2.2232    -0.4755    -0.2085    
Ar	-1.5694    -0.5354    0.5340    
Ar	-0.1302    -3.2667    -1.8733    
Ar	1.3989    -2.5238    0.6966    
Ar	1.2328    -1.7918    -0.5146    
Ar	3.2459    -2.7739    -1.6018    
Ar	4.0957    -0.5823    1.6618    
Ar	-2.3484    -0.2567    -1.3764    
Ar	-1.4789    0.0496    -0.5956    
Ar	-0.8614    -0.9672    1.6468    
Ar	0.5089    -1.4660    0.0623    
Ar	0.7656    0.1228    -0.0358    
Ar	3.2980    -0.7008    -0.0582    
Ar	3.6655    -1.4537    0.6058    
Ar	2.8990    -0.1742    1.5478    
Ar	-3.1890    -0.1254    -0.0094    
Ar	-0.9954    1.0947    0.1532    
Ar	-2.2416    1.0542    -2.1326    
Ar	0.0209    0.6727    -1.7440    
Ar	0.4037    -0.5267    0.9024    
Ar	1.5518    1.1476    -0.4463    
Ar	1.8230    -0.0470    -1.0139    
Ar	3.8932    0.1318    0.8602    
Ar	-3.3858    1.4080    2.0863    
Ar	-3.7229    0.9261    -0.1969    
Ar	-0.5402    0.9615    -0.7868    
Ar	0.4741    1.3063    -0.6587    
Ar	2.5221    1.5113    0.6160    
Ar	2.8259    0.7264    1.2145    
Ar	4.0538    2.2569    0.8760    
Ar	-3.9100    2.3057    0.0621    
Ar	-4.1365    2.5901    -1.8517    
Ar	-1.8645    1.3791    -0.2944    
Ar	0.7089    1.9578    -0.0510    
Ar	-0.8519    3.0597    -1.0567    
Ar	0.0741    3.4233    -0.9700    
Ar	2.3522    2.7218    0.7292    
Ar	3.3330    3.0194    -0.6822    
Ar	3.8932    3.7568    -1.6742    
Ar	-4.1360    2.9661    -0.7914    
Ar	-2.3770    4.2746    -0.6086    
Ar	-0.2302    2.8369    -0.0031    
Ar	-0.3953    3.9842    -0.1438    
Ar	-0.5657    3.6002    0.7943    
Ar	1.7305    3.9269    -0.0894    
Ar	2.4474    2.5604    2.3668    
Ar	3.2800    -3.4180    -0.5446    
Ar	-3.2060    -4.1514    1.0976    
Ar	-3.4299    2.5626    1.3125    
Ar	-2.7018    -3.0817    0.9809    
Ar	0.2136    -3.9756    0.6611    
Ar	0.3363    -2.8226    2.2678    
Ar	-0.0229    3.6636    1.6867    
Ar	2.4145    -3.8975    0.0979    
Ar	-3.2435    -1.1634    0.1478    
Ar	3.0441    -3.4092    1.2740    
Ar	-2.1115    -3.5830    0.1633    
Ar	-1.2810    -2.5977    0.6087    
Ar	-0.3688    -3.8440    1.8556    
Ar	0.5875    -2.4094    1.1720    
Ar	2.0674    3.9500    2.8515    
Ar	1.2116    -3.6444    -0.0943    
Ar	-3.9732    -2.2010    0.6135    
Ar	-3.9110    -3.4717    0.6992    
Ar	-2.8185    -2.0205    0.9095    
Ar	-2.6373    -1.4400    1.8826    
Ar	-1.6676    -1.6447    0.5716    
Ar	-0.3584    -3.0229    1.2478    
Ar	2.2135    -1.0844    -0.5038    
Ar	2.5348    4.1388    1.7233    
Ar	-2.4133    -0.0073    1.1578    
Ar	-2.9593    -0.4510    2.1668    
Ar	-3.6820    -0.4861    1.1366    
Ar	0.9468    1.0597    0.7694    
Ar	-0.5144    -1.0506    0.2864    
Ar	0.9011    -1.0226    2.1752    
Ar	1.3524    -0.8851    0.0176    
Ar	1.6670    -2.6522    -0.4410    
Ar	-2.2484    0.3991    2.2302    
Ar	-2.7245    0.9981    -0.8605    
Ar	-1.9920    1.0602    1.0191    
Ar	-0.9239    0.0074    1.1141    
Ar	-0.5932    0.0331    -0.0479    
Ar	1.8804    0.6825    0.9586    
Ar	3.3632    1.9167    1.4554    
Ar	3.0870    -2.7754    1.9998    
Ar	4.1933    1.0756    1.5195    
Ar	3.6932    2.6098    1.9778    
Ar	-1.9813    0.4524    0.2754    
Ar	-2.8434    1.0235    0.1973    
Ar	1.1364    2.0187    1.0782    
Ar	0.4836    2.2583    2.4999    
Ar	1.5215    2.0596    2.5670    
Ar	2.2935    0.5009    2.4182    
Ar	-3.5095    1.5071    0.9839    
Ar	-1.9991    2.4062    1.7727    
Ar	-2.5915    1.7097    1.5113    
Ar	-2.5103    1.8978    0.5478    
Ar	0.2767    1.5920    1.5016    
Ar	0.5448    3.7652    0.0092    
Ar	3.3598    2.4511    0.1536    
Ar	-4.0999    3.2644    1.2952    
Ar	-3.7746    -3.3456    -0.5282    
Ar	3.7990    -4.0925    0.6875    
Ar	-2.2313    3.9104    1.7628    
Ar	-2.7862    3.2384    0.0550    
Ar	-1.1031    3.5329    2.0778    
Ar	-0.3575    3.3303    -4.0437    
Ar	1.3011    2.9506    0.6473    
Ar	2.9782    3.8062    2.7224    
Ar	4.2184    2.7149    2.9577    
Ar	-3.5837    3.2858    2.2879    
Ar	-2.6021    3.1302    1.1128    
Ar	-1.1570    -2.8215    1.9946    
Ar	-1.6114    3.2243    1.0797    
Ar	1.1445    4.0093    3.0107    
Ar	1.4577    -3.7262    2.1806    
Ar	3.0047    -3.6446    2.4996    
Ar	4.0989    -3.9095    2.2136    
Ar	-2.6617    -3.6435    1.7396    
Ar	-1.9431    -2.2816    1.7333    
Ar	-1.4948    -3.8314    3.3544    
Ar	0.5566    -1.9313    2.6694    
Ar	0.4554    -3.8910    2.5636    
Ar	2.2157    -2.7344    1.4491    
Ar	3.7981    -3.7097    3.6891    
Ar	3.4128    -1.9305    2.5771    
Ar	-3.7885    -3.2797    1.8555    
Ar	-3.6177    -1.5753    1.4833    
Ar	0.3735    -2.8154    3.3545    
Ar	-0.6120    -2.0724    2.5645    
Ar	1.3343    -2.6218    3.2535    
Ar	3.6237    -2.9976    2.8142    
Ar	3.8873    -1.8158    1.4705    
Ar	3.1787    -1.0380    2.0886    
Ar	-4.0688    -0.6746    2.9523    
Ar	-2.5578    -2.1818    2.9777    
Ar	0.2093    -0.1040    1.9833    
Ar	2.7629    -1.2804    0.8460    
Ar	2.5977    -1.8914    1.8404    
Ar	1.9635    -1.7626    0.2373    
Ar	1.2243    -0.6985    3.1297    
Ar	-3.7837    0.3313    2.0478    
Ar	-2.9883    0.3821    3.8608    
Ar	-2.1655    -0.0311    3.0318    
Ar	-1.7318    -0.5151    1.7783    
Ar	0.0555    0.4602    1.1040    
Ar	2.5527    1.5806    1.8809    
Ar	1.0694    0.2169    2.8565    
Ar	1.9871    -0.6400    0.7629    
Ar	-3.7337    0.4911    0.6434    
Ar	-0.8486    0.1950    2.1126    
Ar	-1.5211    -0.1464    3.7867    
Ar	-0.8108    1.3051    1.3874    
Ar	1.4708    0.9829    2.1146    
Ar	-0.2674    2.8811    2.3675    
Ar	0.2061    1.2133    2.5076    
Ar	3.5707    0.5630    2.1110    
Ar	3.8928    3.0196    -3.7149    
Ar	-3.2194    2.4103    2.2866    
Ar	-3.5409    1.8459    3.1184    
Ar	-1.4626    2.0487    0.5808    
Ar	0.2820    2.6899    1.3388    
Ar	1.6948    2.8955    1.6288    
Ar	1.5302    3.9396    1.6995    
Ar	2.4877    3.7023    0.4907    
Ar	3.3437    2.0575    2.6463    
Ar	-3.2654    4.1497    2.0401    
Ar	-0.5251    2.9550    3.4805    
Ar	-1.4394    3.1005    2.8666    
Ar	0.7377    3.2243    2.2890    
Ar	-0.4649    2.0575    3.0691    
Ar	3.1931    2.9520    3.2075    
Ar	-3.6655    -3.8900    3.9654    
Ar	-3.6703    3.8466    3.1786    
Ar	-2.0559    4.0754    2.7766    
Ar	-2.5463    3.1859    2.4909    
Ar	-1.1462    -4.0757    -3.9831    
Ar	-1.3891    -4.2655    1.2126    
Ar	2.1044    3.9638    4.1114    
Ar	0.4520    4.1143    4.1392    
Ar	3.0817    3.7431    4.0438    
Ar	-3.7274    -2.5349    3.6366    
Ar	-2.9327    -2.5185    1.9016    
Ar	-2.9745    -3.7410    2.7605    
Ar	-0.5850    -3.1036    2.8286    
Ar	0.1705    3.6723    2.9759    
Ar	1.7530    -3.7914    3.3901    
Ar	1.4708    -1.4912    1.3620    
Ar	2.5071    -2.4193    3.2067    
Ar	3.6731    -0.7415    -3.7888    
Ar	4.2640    -1.4356    2.3665    
Ar	-0.7855    -3.0842    -3.4792    
Ar	-0.8665    -3.0558    4.0267    
Ar	1.1560    -2.1089    4.1824    
Ar	-0.0037    -1.6009    1.7239    
Ar	1.8945    -2.9629    2.5291    
Ar	-3.8646    -2.1140    -3.8254    
Ar	-3.0714    -1.0832    3.0653    
Ar	-2.7814    -0.7471    -3.6972    
Ar	-0.7249    -1.5122    3.5172    
Ar	-1.1838    -0.5275    2.9245    
Ar	-0.6102    -0.7757    4.0468    
Ar	0.7149    -0.4870    -4.2566    
Ar	1.8496    -0.1399    3.5768    
Ar	2.2147    -2.1006    -4.2030    
Ar	-3.0027    0.6887    1.4354    
Ar	-2.4015    1.3445    3.0792    
Ar	-1.8716    -1.2926    2.5262    
Ar	-0.7012    1.6616    2.2281    
Ar	-2.4336    -0.6202    3.9719    
Ar	-0.2265    -0.2237    3.3352    
Ar	2.5843    0.9109    3.7634    
Ar	2.1485    -1.0330    2.0956    
Ar	4.1860    1.3339    2.6555    
Ar	-3.1035    0.6272    2.6930    
Ar	-1.9238    1.4266    2.1962    
Ar	-1.2814    1.5716    3.1273    
Ar	-0.6691    0.8152    3.0339    
Ar	0.6350    0.5822    3.6056    
Ar	2.4319    1.8909    4.1707    
Ar	3.7272    -0.1862    2.6556    
Ar	1.7614    -0.1353    1.7975    
Ar	-4.2732    2.4463    3.9274    
Ar	-2.1359    2.2991    3.0624    
Ar	-0.8299    2.3282    1.3325    
